Version 4
SHEET 1 880 680
WIRE 320 128 240 128
WIRE 448 128 320 128
WIRE 448 208 448 128
WIRE 320 272 320 128
WIRE 240 272 240 128
WIRE 560 176 512 176
WIRE 640 176 560 176
WIRE 640 272 640 176
WIRE 560 272 560 176
FLAG 240 272 0
FLAG 448 272 0
FLAG 640 272 0
SYMBOL voltage 240 192 R0
SYMATTR InstName V1
SYMATTR Value 5
SYMBOL voltage 448 208 R0
SYMATTR InstName V2
SYMATTR Value 2.5
SYMBOL voltage 320 192 R0
SYMATTR InstName V3
SYMATTR Value SINE(2.5 0.5 2) AC 0.5
SYMBOL Opamps\\OP07 528 144 R0
SYMATTR InstName U1
SYMBOL res 624 160 R0
SYMATTR InstName R1
SYMATTR Value 1k
TEXT 200 380 Left 2 !.tran 0 5 0
