Version 4
SHEET 1 1200 800
WIRE 112 96 112 48
WIRE 112 48 480 48
WIRE 480 96 480 48
WIRE 480 192 480 176
WIRE 480 288 480 272
WIRE 480 384 480 368
WIRE 480 432 480 384
WIRE 112 432 112 176
FLAG 112 432 0
FLAG 480 432 0

SYMBOL voltage 112 112 R0
SYMATTR InstName Vdd
SYMATTR Value 5

SYMBOL res 464 80 R0
SYMATTR InstName R1
SYMATTR Value 1.25k

SYMBOL res 464 176 R0
SYMATTR InstName R2
SYMATTR Value 1.25k

SYMBOL res 464 272 R0
SYMATTR InstName R3
SYMATTR Value 1.25k

SYMBOL res 464 368 R0
SYMATTR InstName R4
SYMATTR Value 1.25k

SYMBOL voltage 200 300 R0
SYMATTR InstName Vin
SYMATTR Value SINE(2.5 2.4 1) AC 1

SYMBOL Opamps\\OP07 600 100 R0
SYMATTR InstName U1

SYMBOL Opamps\\OP07 600 240 R0
SYMATTR InstName U2

SYMBOL Opamps\\OP07 600 380 R0
SYMATTR InstName U3

TEXT 200 500 Left 2 !.tran 0 5 0
